28

C         -0.81475        5.28763        0.22827
C          0.57087        5.11102        0.05619
C         -1.65773        4.18277        0.37704
C          1.09945        3.81031        0.04299
C         -1.12430        2.89324        0.37118
C          0.25198        2.70580        0.20935
H         -2.72403        4.32919        0.49492
H         -1.24419        6.28199        0.22967
H          2.16220        3.64894       -0.08177
H         -1.77929        2.03897        0.49095
H          0.66070        1.70414        0.21050
C          1.44865        6.32670       -0.12555
C          1.62886        7.06437        1.21595
H          0.95940        6.95677       -0.89548
H          2.45494        6.05246       -0.51060
C          2.18406        8.50521        1.11816
C          1.15699        9.43993        0.44729
N          3.49230        8.53558        0.44144
C          4.18957        9.80260        0.67435
H          2.52753        9.23723       -0.09875
H          4.89959        8.94932        0.27359
H          3.63914       10.78200        0.23127
H          2.30318        6.49207        1.81817
H          0.64777        7.15677        1.63288
H          0.98218        9.11539       -0.55721
H          1.53760       10.43990        0.43790
H          0.23864        9.41298        0.99574
H          2.34744        8.86907        2.11104
